LAMMPS (23 Jun 2022)
# Kremer-Grest polymer model in LAMMPS

units lj
atom_style full
dimension 3
boundary p p p

pair_style lj/cut 2.5
#bond_style fene
bond_style harmonic
#angle_style harmonic

read_data cool.dat
Reading data file ...
  orthogonal box = (97.02653 97.02653 97.02653) to (102.97347 102.97347 102.97347)
  reading atoms ...
  200 atoms
  reading velocities ...
  200 velocities
  scanning bonds ...
  reading bonds ...
  224 bonds
Finding 1-2 1-3 1-4 neighbors ...
     4 = max # of 1-2 neighbors
     4 = max # of 1-3 neighbors
    10 = max # of 1-4 neighbors
    12 = max # of special neighbors
pair_coeff * * 1.0 1.0 2.5
bond_coeff * 100.0 1.2
#bond_coeff 1 30.0 1.5 1.0 1.0
#angle_coeff 1 16 180

#special_bonds fene
special_bonds lj 0 1 1
Finding 1-2 1-3 1-4 neighbors ...
     4 = max # of 1-2 neighbors
     4 = max # of 1-3 neighbors
    10 = max # of 1-4 neighbors
    12 = max # of special neighbors

timestep 0.002

# Neighbor list
neighbor 1.0 bin
neigh_modify delay 0 every 1 check yes

thermo_style    custom step temp density pe enthalpy press pxx pyy pzz pxy pxz pyz lx ly lz xy yz xz density
thermo          1000

dump            1 all custom 1000 dump_relax.data id mol type x y z
dump_modify     1 sort id

# Initializiation
velocity all create 0.1 87287

#NVT melt run
#fix             1 all nvt temp 1.5 1.5 0.5
fix             1 all deform 1 x trate 0.005 remap x
#fix             2 all npt temp 0.1 0.1 0.5 y 1 1 5 z 1 1 5
fix 2 all nvt temp 0.1 0.1 0.5
fix             3 all bond/break 1 1 1.5
fix             4 all bond/break 1 2 1.5
run             200000
Generated 0 of 1 mixed pair_coeff terms from geometric mixing rule
  update every 1 steps, delay 0 steps, check yes
Step          Temp         Density         PotEng        Enthalpy        Press           Pxx            Pyy            Pzz            Pxy            Pxz            Pyz             Lx             Ly             Lz             Xy             Yz             Xz          Density
0   0.1            1.0460244     -5.6446812     -4.3021136      1.134763       0.76846274     1.5650075      1.0708188      0.21704503     0.029194107    0.55460914     5.9469409      5.9469409      5.9469409      0              0              0              1.0460244
Averages over the last 101 of 201 rows, steps 100000 to 200000:
Temp Density PotEng Enthalpy Press Pxx Pyy Pzz Pxy Pxz Pyz Lx Ly Lz Xy Yz Xz Density
0.101131 0.243446 -4.50403 -5.15353 -0.216961 -0.265801 -0.190068 -0.195013 -0.0549349 0.0154574 0.051484 27.7996 5.94694 5.94694 0 0 0 0.243446
Loop time of 25.2843 on 12 procs for 200000 steps with 200 atoms

unfix           1

#write_restart   sout.rest
write_data      deform.dat
System init for write_data ...
Generated 0 of 1 mixed pair_coeff terms from geometric mixing rule
